Circuit: * C:\Users\e1176752\Documents\VSCode\Projects\ES6343\LTSpice\8x20 - Five Capacitors.asc

Direct Newton iteration for .op point succeeded.

Date: Tue Jul 11 12:02:47 2023
Total elapsed time: 0.049 seconds.

tnom = 27
temp = 27
method = modified trap
totiter = 2085
traniter = 2082
tranpoints = 1042
accept = 1042
rejected = 0
matrix size = 11
fillins = 0
solver = Normal
Matrix Compiler1: 504 bytes object code size  0.1/0.1/[0.0]
Matrix Compiler2: off  [0.0]/0.1/0.5

