Circuit: * C:\Users\e1176752\Documents\VSCode\Projects\ES6343\LTSpice\8x20 - Single Capacitor.asc

Direct Newton iteration for .op point succeeded.

Date: Tue Jul 11 11:59:11 2023
Total elapsed time: 0.060 seconds.

tnom = 27
temp = 27
method = modified trap
totiter = 2085
traniter = 2082
tranpoints = 1042
accept = 1042
rejected = 0
matrix size = 3
fillins = 0
solver = Normal
Matrix Compiler1:       6 opcodes  0.0/[0.0]/0.0
Matrix Compiler2: 189 bytes object code size  0.0/0.1/[0.0]

