Circuit: * C:\Users\e1176752\Documents\VSCode\Projects\ES6343\8x20 - Two Capacitor.asc

Direct Newton iteration for .op point succeeded.

Date: Mon Jul 10 15:42:04 2023
Total elapsed time: 0.037 seconds.

tnom = 27
temp = 27
method = modified trap
totiter = 2085
traniter = 2082
tranpoints = 1042
accept = 1042
rejected = 0
matrix size = 5
fillins = 0
solver = Normal
Matrix Compiler1: 204 bytes object code size  0.0/0.0/[0.0]
Matrix Compiler2:      28 opcodes  0.1/[0.0]/0.0

